%%%%%%%%%%%%%%%%%%%%%%%%%%%%%%%%%%%%%%%%%%%%%%%%%%%%%%%%%%%%%%%%%%%%%%%%%%%%%%%%
%                                                                              %
% SU2 Configuration File                                                       %
% MegaDrone Phase 1 - CRUISE Condition                                %
%                                                                              %
%%%%%%%%%%%%%%%%%%%%%%%%%%%%%%%%%%%%%%%%%%%%%%%%%%%%%%%%%%%%%%%%%%%%%%%%%%%%%%%%

% ------------- DIRECT, ADJOINT, AND LINEARIZED PROBLEM DEFINITION ------------%
SOLVER= RANS
KIND_TURB_MODEL= SA
MATH_PROBLEM= DIRECT
RESTART_SOL= NO

% -------------------- COMPRESSIBLE FREE-STREAM DEFINITION --------------------%
MACH_NUMBER= 0.0750
AOA= 3.0
SIDESLIP_ANGLE= 0.0
FREESTREAM_OPTION= TEMPERATURE_FS
FREESTREAM_TEMPERATURE= 288.15
REYNOLDS_NUMBER= 250000
REYNOLDS_LENGTH= 0.1420

% ---------------------- REFERENCE VALUE DEFINITION ---------------------------%
REF_ORIGIN_MOMENT_X= 0.25
REF_ORIGIN_MOMENT_Y= 0.00
REF_ORIGIN_MOMENT_Z= 0.00
REF_LENGTH= 0.1420
REF_AREA= 1.0

% -------------------- BOUNDARY CONDITION DEFINITION --------------------------%
MARKER_HEATFLUX= ( airfoil, 0.0 )
MARKER_FAR= ( farfield )

% ------------------------ SURFACES IDENTIFICATION ----------------------------%
MARKER_PLOTTING= ( airfoil )
MARKER_MONITORING= ( airfoil )
MARKER_DESIGNING= ( airfoil )

% ------------- COMMON PARAMETERS DEFINING THE NUMERICAL METHOD ---------------%
NUM_METHOD_GRAD= WEIGHTED_LEAST_SQUARES
CFL_NUMBER= 10.0
CFL_ADAPT= YES
CFL_ADAPT_PARAM= ( 0.1, 2.0, 10.0, 1e10 )

% ------------------------ LINEAR SOLVER DEFINITION ---------------------------%
LINEAR_SOLVER= FGMRES
LINEAR_SOLVER_PREC= ILU
LINEAR_SOLVER_ERROR= 1E-6
LINEAR_SOLVER_ITER= 10

% -------------------- FLOW NUMERICAL METHOD DEFINITION -----------------------%
CONV_NUM_METHOD_FLOW= ROE
MUSCL_FLOW= YES
SLOPE_LIMITER_FLOW= NONE
TIME_DISCRE_FLOW= EULER_IMPLICIT

% -------------------- TURBULENT NUMERICAL METHOD DEFINITION ------------------%
CONV_NUM_METHOD_TURB= SCALAR_UPWIND
MUSCL_TURB= NO
SLOPE_LIMITER_TURB= NONE
TIME_DISCRE_TURB= EULER_IMPLICIT

% --------------------------- CONVERGENCE PARAMETERS --------------------------%
CONV_RESIDUAL_MINVAL= -12
CONV_STARTITER= 10
CONV_CAUCHY_ELEMS= 100
CONV_CAUCHY_EPS= 1E-6

% ------------------------- INPUT/OUTPUT INFORMATION --------------------------%
MESH_FILENAME= airfoil_2d.su2
MESH_FORMAT= SU2
SOLUTION_FILENAME= restart_flow.dat
RESTART_FILENAME= restart_flow.dat
CONV_FILENAME= history
VOLUME_FILENAME= flow
SURFACE_FILENAME= surface_flow
OUTPUT_WRT_FREQ= 100
SCREEN_WRT_FREQ_INNER= 1

% ------------------------ SCREEN OUTPUT DEFINITION ---------------------------%
SCREEN_OUTPUT= (INNER_ITER, RMS_DENSITY, RMS_NU_TILDE, LIFT, DRAG)

% ------------------------- HISTORY OUTPUT DEFINITION --------------------------%
HISTORY_OUTPUT= (ITER, RMS_RES, AERO_COEFF, FLOW_COEFF)

% ------------------------- FILE OUTPUT DEFINITION ----------------------------%
OUTPUT_FILES= (RESTART, PARAVIEW, SURFACE_PARAVIEW)
TABULAR_FORMAT= CSV

% ------------------------------- SOLVER CONTROL ------------------------------%
ITER= 5000
